pglib_opf_case60_c/dapi/pglib_opf_case60_c_2regions_dapi.m
% -------------------------------------------------------------------------
% Partitioned MATPOWER Case File
% Copyright (c) 2025 Milad Hasanzadeh
% Generated on: 2026-06-14
% This file contains partitioned data for 2 regions


% -------------------- mpc_regionR1 --------------------

mpc_regionR1.version = '2';
mpc_regionR1.baseMVA = 100.0000;
mpc_regionR1.bus = [
%	bus_i       type        Pd          Qd          Gs          Bs          area        Vm          Va          baseKV      zone        Vmax        Vmin        
	 1	 1	 627.89	 190.11	 0	 200	 1	 1	 0	 130	 1	 1.1	 0.9;
	 2	 1	 314.1	 75.06	 0	 0	 1	 1	 0	 130	 1	 1.1	 0.9;
	 3	 1	 240.73	 96.21	 0	 100	 1	 1	 0	 130	 1	 1.1	 0.9;
	 4	 1	 837.4	 286.82	 0	 200	 1	 1	 0	 130	 1	 1.1	 0.9;
	 5	 1	 732.8	 238.47	 0	 200	 1	 1	 0	 130	 1	 1.1	 0.9;
	 6	 1	 565.14	 151.1	 0	 200	 1	 1	 0	 400	 1	 1.1	 0.9;
	 7	 1	 418.7	 143.41	 0	 0	 1	 1	 0	 400	 1	 1.1	 0.9;
	 8	 1	 942	 288.17	 0	 200	 1	 1	 0	 400	 1	 1.1	 0.9;
	 9	 1	 732.8	 238.47	 0	 100	 1	 1	 0	 400	 1	 1.1	 0.9;
	 10	 1	 104.6	 48.35	 0	 0	 1	 1	 0	 400	 1	 1.1	 0.9;
	 11	 1	 837.4	 288.82	 0	 100	 1	 1	 0	 400	 1	 1.1	 0.9;
	 12	 1	 780.53	 149	 0	 0	 1	 1	 0	 400	 1	 1.1	 0.9;
	 13	 1	 468.32	 100	 0	 0	 1	 1	 0	 400	 1	 1.1	 0.9;
	 14	 1	 921.03	 300	 0	 0	 1	 1	 0	 400	 1	 1.1	 0.9;
	 15	 1	 0	 0	 0	 0	 1	 1	 0	 400	 1	 1.1	 0.9;
	 16	 1	 0	 0	 0	 0	 1	 1	 0	 400	 1	 1.1	 0.9;
	 17	 1	 0	 0	 0	 0	 1	 1	 0	 400	 1	 1.1	 0.9;
	 18	 1	 0	 0	 0	 0	 1	 1	 0	 400	 1	 1.1	 0.9;
	 19	 1	 0	 0	 0	 0	 1	 1	 0	 400	 1	 1.1	 0.9;
	 20	 1	 0	 0	 0	 0	 1	 1	 0	 400	 1	 1.1	 0.9;
	 21	 1	 0	 0	 0	 0	 1	 1	 0	 400	 1	 1.1	 0.9;
	 22	 1	 0	 0	 0	 0	 1	 1	 0	 400	 1	 1.1	 0.9;
	 23	 2	 0	 0	 0	 0	 1	 1	 0	 15	 1	 1.1	 0.9;
	 24	 2	 0	 0	 0	 0	 1	 1	 0	 15	 1	 1.1	 0.9;
	 25	 2	 0	 0	 0	 0	 1	 1	 0	 15	 1	 1.1	 0.9;
	 26	 2	 0	 0	 0	 0	 1	 1	 0	 15	 1	 1.1	 0.9;
	 27	 3	 0	 0	 0	 0	 1	 1	 0	 15	 1	 1.1	 0.9;
	 28	 2	 0	 0	 0	 0	 1	 1	 0	 15	 1	 1.1	 0.9;
	 29	 2	 0	 0	 0	 0	 1	 1	 0	 15	 1	 1.1	 0.9;
	 30	 2	 0	 0	 0	 0	 1	 1	 0	 15	 1	 1.1	 0.9;
	 31	 2	 0	 0	 0	 0	 1	 1	 0	 15	 1	 1.1	 0.9;
	 32	 2	 0	 0	 0	 0	 1	 1	 0	 15	 1	 1.1	 0.9;
	 33	 2	 0	 0	 0	 0	 1	 1	 0	 15	 1	 1.1	 0.9;
];

mpc_regionR1.gen = [
%	bus         Pg          Qg          Qmax        Qmin        Vg          mBase       status      Pmax        Pmin        Pc1         Pc2         Qc1min      Qc1max      Qc2min      Qc2max      ramp_agc    ramp_10     ramp_30     ramp_q      apf         
	 23	 206.5	 100	 560	-360	 1	 600	 1	 408	 5;
	 24	 228	 40	 360	-280	 1	 400	 1	 451	 5;
	 25	 0	 0	 570	-570	 1	 600	 1	 0	 0;
	 26	 387	 0	 630	-630	 1	 700	 1	 769	 5;
	 27	 672	 585	 1840	-670	 1	 3000	 1	 1339	 5;
	 28	 339	 20	 580	-540	 1	 600	 1	 673	 5;
	 29	 485	 0	 630	-630	 1	 700	 1	 965	 5;
	 30	 647	 0	 645	-645	 1	 700	 1	 1289	 5;
	 31	 350	 0	 540	-540	 1	 600	 1	 695	 5;
	 32	 335	 0	 540	-540	 1	 600	 1	 665	 5;
	 33	 405	 0	 540	-540	 1	 600	 1	 805	 5;
];

mpc_regionR1.branch = [
%	fbus        tbus        r           x           b           rateA       rateB       rateC       ratio       angle       status      angmin      angmax      
	 1	 3	 0.01	 0.06	 0.012211	 175	 175	 175	 0	 0	 1	-30	 30;
	 1	 3	 0.01	 0.06	 0.012211	 175	 175	 175	 0	 0	 1	-30	 30;
	 1	 5	 0.01497	 0.12	 0.024954	 175	 175	 175	 0	 0	 1	-30	 30;
	 1	 5	 0.01497	 0.12	 0.024954	 175	 175	 175	 0	 0	 1	-30	 30;
	 2	 4	 0.037988	 0.28	 0.059995	 175	 175	 175	 0	 0	 1	-30	 30;
	 2	 4	 0.037988	 0.28	 0.059995	 175	 175	 175	 0	 0	 1	-30	 30;
	 2	 5	 0.05	 0.3	 0.059995	 175	 175	 175	 0	 0	 1	-30	 30;
	 3	 4	 0.01	 0.08	 0.015928	 175	 175	 175	 0	 0	 1	-30	 30;
	 3	 4	 0.01	 0.08	 0.015928	 175	 175	 175	 0	 0	 1	-30	 30;
	 16	 7	 0	-0.04	 0	 700	 700	 700	 0	 0	 1	-30	 30;
	 17	 6	 0	-0.04	 0	 700	 700	 700	 0	 0	 1	-30	 30;
	 18	 6	 0	-0.04	 0	 700	 700	 700	 0	 0	 1	-30	 30;
	 15	 19	 0.01	 0.066669	 2.000576	 700	 700	 700	 0	 0	 1	-30	 30;
	 19	 7	 0	-0.026669	 0	 700	 700	 700	 0	 0	 1	-30	 30;
	 15	 20	 0.006	 0.08	 2.397664	 700	 700	 700	 0	 0	 1	-30	 30;
	 20	 21	 0	-0.03	 0	 700	 700	 700	 0	 0	 1	-30	 30;
	 6	 21	 0.003	 0.03	 0.899744	 700	 700	 700	 0	 0	 1	-30	 30;
	 6	 12	 0.006	 0.045	 1.301888	 700	 700	 700	 0	 0	 1	-30	 30;
	 7	 8	 0.002	 0.015	 0.497632	 700	 700	 700	 0	 0	 1	-30	 30;
	 7	 21	 0.002	 0.02	 0.598176	 700	 700	 700	 0	 0	 1	-30	 30;
	 8	 21	 0.001	 0.01	 0.301594	 700	 700	 700	 0	 0	 1	-30	 30;
	 8	 9	 0.001	 0.01	 0.301594	 700	 700	 700	 0	 0	 1	-30	 30;
	 8	 10	 0.002	 0.02	 0.598176	 700	 700	 700	 0	 0	 1	-30	 30;
	 21	 22	 0.002	 0.02	 0.598176	 700	 700	 700	 0	 0	 1	-30	 30;
	 21	 22	 0.002	 0.02	 0.598176	 700	 700	 700	 0	 0	 1	-30	 30;
	 22	 11	 0.004	 0.04	 1.201344	 700	 700	 700	 0	 0	 1	-30	 30;
	 22	 11	 0.004	 0.04	 1.201344	 700	 700	 700	 0	 0	 1	-30	 30;
	 22	 13	 0.011	 0.08	 2.397664	 700	 700	 700	 0	 0	 1	-30	 30;
	 9	 10	 0.001	 0.015	 0.497632	 700	 700	 700	 0	 0	 1	-30	 30;
	 12	 13	 0.002	 0.02	 0.598176	 700	 700	 700	 0	 0	 1	-30	 30;
	 13	 14	 0.003	 0.03	 0.899744	 700	 700	 700	 0	 0	 1	-30	 30;
	 13	 14	 0.003	 0.03	 0.899744	 700	 700	 700	 0	 0	 1	-30	 30;
	 2	 23	 0	 0.0375	 0	 400	 400	 400	 1	 0	 1	-30	 30;
	 3	 24	 0	 0.075	 0	 1200	 1200	 1200	 1	 0	 1	-30	 30;
	 6	 25	 0	 0.033333	 0	 300	 300	 300	 1	 0	 1	-30	 30;
	 7	 26	 0	 0.021429	 0	 700	 700	 700	 1	 0	 1	-30	 30;
	 10	 27	 0	 0.025	 0	 600	 600	 600	 1	 0	 1	-30	 30;
	 10	 28	 0	 0.025	 0	 600	 600	 600	 1	 0	 1	-30	 30;
	 11	 29	 0	 0.021429	 0	 700	 700	 700	 1	 0	 1	-30	 30;
	 11	 30	 0	 0.021429	 0	 700	 700	 700	 1	 0	 1	-30	 30;
	 13	 31	 0	 0.025	 0	 600	 600	 600	 1	 0	 1	-30	 30;
	 14	 32	 0	 0.025	 0	 600	 600	 600	 1	 0	 1	-30	 30;
	 14	 33	 0	 0.025	 0	 600	 600	 600	 1	 0	 1	-30	 30;
	 21	 4	 0	 0.01	 0	 1000	 1000	 1000	 1	 0	 1	-30	 30;
	 21	 4	 0	 0.01	 0	 1000	 1000	 1000	 1	 0	 1	-30	 30;
	 22	 5	 0	 0.01	 0	 1000	 1000	 1000	 1	 0	 1	-30	 30;
	 22	 5	 0	 0.01	 0	 1000	 1000	 1000	 1	 0	 1	-30	 30;
];

mpc_regionR1.gencost = [
%	2           startup     shutdown    n           c(n-1)...c0 
	 2	 0	 0	 3	 0	 20	 0;
	 2	 0	 0	 3	 0	 10	 0;
	 2	 0	 0	 3	 0	 30	 0;
	 2	 0	 0	 3	 0	 10	 0;
	 2	 0	 0	 3	 0	 20	 0;
	 2	 0	 0	 3	 0	 10	 0;
	 2	 0	 0	 3	 0	 10	 0;
	 2	 0	 0	 3	 0	 30	 0;
	 2	 0	 0	 3	 0	 10	 0;
	 2	 0	 0	 3	 0	 20	 0;
	 2	 0	 0	 3	 0	 10	 0;
];


% -------------------- mpc_regionR2 --------------------

mpc_regionR2.version = '2';
mpc_regionR2.baseMVA = 100.0000;
mpc_regionR2.bus = [
%	bus_i       type        Pd          Qd          Gs          Bs          area        Vm          Va          baseKV      zone        Vmax        Vmin        
	 1	 1	 312.21	 80	 0	-340.12	 1	 1	 0	 130	 1	 1.1	 0.9;
	 2	 1	 468.32	 100	 0	 0	 1	 1	 0	 130	 1	 1.1	 0.9;
	 3	 1	 156.11	 40	 0	 0	 1	 1	 0	 130	 1	 1.1	 0.9;
	 4	 1	 437.1	 95	 0	 150	 1	 1	 0	 130	 1	 1.1	 0.9;
	 5	 1	 156.11	 30	 0	 0	 1	 1	 0	 220	 1	 1.1	 0.9;
	 6	 1	 312.21	 50	 0	 0	 1	 1	 0	 220	 1	 1.1	 0.9;
	 7	 1	 468.32	 100	 0	-400	 1	 1	 0	 400	 1	 1.1	 0.9;
	 8	 1	 3122.14	 500	 0	 0	 1	 1	 0	 400	 1	 1.1	 0.9;
	 9	 1	 0	 0	 0	-100	 1	 1	 0	 400	 1	 1.1	 0.9;
	 10	 1	 0	 0	 0	 0	 1	 1	 0	 130	 1	 1.1	 0.9;
	 11	 1	 0	 0	 0	 0	 1	 1	 0	 130	 1	 1.1	 0.9;
	 12	 1	 0	 0	 0	 0	 1	 1	 0	 400	 1	 1.1	 0.9;
	 13	 1	 0	 0	 0	 0	 1	 1	 0	 400	 1	 1.1	 0.9;
	 14	 1	 0	 0	 0	 0	 1	 1	 0	 400	 1	 1.1	 0.9;
	 15	 1	 0	 0	 0	 0	 1	 1	 0	 400	 1	 1.1	 0.9;
	 16	 2	 0	 0	 0	 0	 1	 1	 0	 15	 1	 1.1	 0.9;
	 17	 2	 0	 0	 0	 0	 1	 1	 0	 15	 1	 1.1	 0.9;
	 18	 2	 0	 0	 0	 0	 1	 1	 0	 15	 1	 1.1	 0.9;
	 19	 2	 0	 0	 0	 0	 1	 1	 0	 15	 1	 1.1	 0.9;
	 20	 2	 0	 0	 0	 0	 1	 1	 0	 15	 1	 1.1	 0.9;
	 21	 2	 0	 0	 0	 0	 1	 1	 0	 15	 1	 1.1	 0.9;
	 22	 2	 0	 0	 0	 0	 1	 1	 0	 15	 1	 1.1	 0.9;
	 23	 2	 0	 0	 0	 0	 1	 1	 0	 15	 1	 1.1	 0.9;
	 24	 2	 0	 0	 0	 0	 1	 1	 0	 15	 1	 1.1	 0.9;
	 25	 2	 0	 0	 0	 0	 1	 1	 0	 15	 1	 1.1	 0.9;
	 26	 2	 0	 0	 0	 0	 1	 1	 0	 15	 1	 1.1	 0.9;
	 27	 2	 0	 0	 0	 0	 1	 1	 0	 15	 1	 1.1	 0.9;
];

mpc_regionR2.gen = [
%	bus         Pg          Qg          Qmax        Qmin        Vg          mBase       status      Pmax        Pmin        Pc1         Pc2         Qc1min      Qc1max      Qc2min      Qc2max      ramp_agc    ramp_10     ramp_30     ramp_q      apf         
	 16	 438.5	 0	 720	-720	 1	 800	 1	 872	 5;
	 17	 329	 0	 540	-540	 1	 600	 1	 653	 5;
	 18	 174	 0	 630	-630	 1	 700	 1	 343	 5;
	 19	 149.5	 0	 540	-540	 1	 600	 1	 294	 5;
	 20	 449	 0	 447	-447	 1	 400	 1	 893	 5;
	 21	 365	 100	 965	-765	 1	 1000	 1	 725	 5;
	 22	 554.5	 0	 900	-900	 1	 1000	 1	 1104	 5;
	 23	 234.5	 0	 720	-720	 1	 800	 1	 464	 5;
	 24	 199	 100	 570	-370	 1	 600	 1	 393	 5;
	 25	 310.5	 50	 515	-415	 1	 600	 1	 616	 5;
	 26	 22	 35	 520	-450	 1	 600	 1	 39	 5;
	 27	 2316	 843	 4000	-2314	 1	 5000	 1	 4627	 5;
];

mpc_regionR2.branch = [
%	fbus        tbus        r           x           b           rateA       rateB       rateC       ratio       angle       status      angmin      angmax      
	 1	 3	 0.01	 0.07	 0.013804	 175	 175	 175	 0	 0	 1	-30	 30;
	 1	 3	 0.01	 0.07	 0.013804	 175	 175	 175	 0	 0	 1	-30	 30;
	 2	 10	 0.014024	 0.09	 0.018052	 175	 175	 175	 0	 0	 1	-30	 30;
	 2	 10	 0.014024	 0.09	 0.018052	 175	 175	 175	 0	 0	 1	-30	 30;
	 3	 10	 0.006982	 0.05	 0.010088	 175	 175	 175	 0	 0	 1	-30	 30;
	 3	 10	 0.006982	 0.05	 0.010088	 175	 175	 175	 0	 0	 1	-30	 30;
	 11	 4	 0.03	 0.2	 0.030263	 175	 175	 175	 0	 0	 1	-30	 30;
	 11	 4	 0.03	 0.2	 0.030263	 175	 175	 175	 0	 0	 1	-30	 30;
	 5	 6	 0.012004	 0.09	 0.015205	 250	 250	 250	 0	 0	 1	-30	 30;
	 5	 6	 0.012004	 0.09	 0.015205	 250	 250	 250	 0	 0	 1	-30	 30;
	 12	 9	 0.001	 0.008	 0.201062	 700	 700	 700	 0	 0	 1	-30	 30;
	 12	 13	 0.006	 0.06	 1.799488	 700	 700	 700	 0	 0	 1	-30	 30;
	 12	 14	 0.004	 0.04	 1.201344	 700	 700	 700	 0	 0	 1	-30	 30;
	 12	 7	 0.005	 0.045	 1.4024	 700	 700	 700	 0	 0	 1	-30	 30;
	 9	 14	 0.004	 0.035	 1.05056	 700	 700	 700	 0	 0	 1	-30	 30;
	 9	 7	 0.005	 0.05	 1.49792	 700	 700	 700	 0	 0	 1	-30	 30;
	 14	 15	 0.004	 0.04	 1.201344	 700	 700	 700	 0	 0	 1	-30	 30;
	 14	 15	 0.004	 0.04	 1.201344	 700	 700	 700	 0	 0	 1	-30	 30;
	 7	 8	 0.003	 0.03	 3.000864	 700	 700	 700	 0	 0	 1	-30	 30;
	 7	 8	 0.003	 0.03	 3.000864	 700	 700	 700	 0	 0	 1	-30	 30;
	 2	 16	 0	 0.01875	 0	 800	 800	 800	 1	 0	 1	-30	 30;
	 3	 17	 0	 0.025	 0	 600	 600	 600	 1	 0	 1	-30	 30;
	 10	 18	 0	 0.021429	 0	 700	 700	 700	 1	 0	 1	-30	 30;
	 11	 19	 0	 0.025	 0	 600	 600	 600	 1	 0	 1	-30	 30;
	 4	 20	 0	 0.06	 0	 1250	 1250	 1250	 1	 0	 1	-30	 30;
	 6	 21	 0	 0.017647	 0	 850	 850	 850	 1	 0	 1	-30	 30;
	 12	 22	 0	 0.015	 0	 1000	 1000	 1000	 1	 0	 1	-30	 30;
	 9	 23	 0	 0.01875	 0	 800	 800	 800	 1	 0	 1	-30	 30;
	 13	 24	 0	 0.05	 0	 300	 300	 300	 1	 0	 1	-30	 30;
	 15	 25	 0	 0.042857	 0	 1350	 1350	 1350	 1	 0	 1	-30	 30;
	 7	 26	 0	 0.03	 0	 500	 500	 500	 1	 0	 1	-30	 30;
	 8	 27	 0	 0.003333	 0	 4500	 4500	 4500	 1	 0	 1	-30	 30;
	 12	 1	 0	 0.008	 0	 1250	 1250	 1250	 0.89286	 0	 1	-30	 30;
	 9	 2	 0	 0.008	 0	 1250	 1250	 1250	 0.89286	 0	 1	-30	 30;
	 14	 4	 0	 0.012	 0	 833.3	 833.3	 833.3	 0.93458	 0	 1	-30	 30;
	 15	 5	 0	 0.012	 0	 833.3	 833.3	 833.3	 0.95238	 0	 1	-30	 30;
];

mpc_regionR2.gencost = [
%	2           startup     shutdown    n           c(n-1)...c0 
	 2	 0	 0	 3	 0	 10	 0;
	 2	 0	 0	 3	 0	 20	 0;
	 2	 0	 0	 3	 0	 10	 0;
	 2	 0	 0	 3	 0	 30	 0;
	 2	 0	 0	 3	 0	 10	 0;
	 2	 0	 0	 3	 0	 30	 0;
	 2	 0	 0	 3	 0	 10	 0;
	 2	 0	 0	 3	 0	 10	 0;
	 2	 0	 0	 3	 0	 20	 0;
	 2	 0	 0	 3	 0	 10	 0;
	 2	 0	 0	 3	 0	 30	 0;
	 2	 0	 0	 3	 0	 10	 0;
];


% ---------- Interregional Tie-Line Information ----------
% Each row: {From_Region (string), To_Region (string), Branch_Data (1x13 array)}
% Branch_Data: {fbus, tbus, r, x, b, rateA, rateB, rateC, ratio, angle, status, angmin, angmax}

interregional_tielines_total = {
	{'mpc_regionR2', 'mpc_regionR1', [ 13	 15	 0.004	 0.04	 1.201344	 700	 700	 700	 0	 0	 1	-30	 30]},
	{'mpc_regionR2', 'mpc_regionR1', [ 13	 16	 0.01	 0.1	 3.000864	 700	 700	 700	 0	 0	 1	-30	 30]},
	{'mpc_regionR2', 'mpc_regionR1', [ 15	 15	 0.001	 0.01	 0.301594	 700	 700	 700	 0	 0	 1	-30	 30]},
	{'mpc_regionR2', 'mpc_regionR1', [ 15	 17	 0.006	 0.08	 2.397664	 700	 700	 700	 0	 0	 1	-30	 30]},
	{'mpc_regionR2', 'mpc_regionR1', [ 15	 18	 0.006	 0.08	 2.397664	 700	 700	 700	 0	 0	 1	-30	 30]},
};

